
     RDKit          3D

 19 19  0  0  0  0  0  0  0  0999 V2000
   -1.2848   -1.1618    0.5297 C   0  0  0  0  0  0  0  0  0  0  0  0
   -2.6254   -0.9442    0.4467 C   0  0  0  0  0  0  0  0  0  0  0  0
   -3.0648    0.2863   -0.0313 C   0  0  0  0  0  0  0  0  0  0  0  0
   -2.1430    1.2415   -0.4040 C   0  0  0  0  0  0  0  0  0  0  0  0
   -0.7757    0.9838   -0.3055 C   0  0  0  0  0  0  0  0  0  0  0  0
   -0.3184   -0.2370    0.1688 C   0  0  0  0  0  0  0  0  0  0  0  0
    0.9935   -0.5739    0.2983 O   0  0  0  0  0  0  0  0  0  0  0  0
    2.1090    0.1817    0.0030 C   0  0  0  0  0  0  0  0  0  0  0  0
    2.8803    0.3570    1.1586 O   0  0  0  0  0  0  0  0  0  0  0  0
    2.9424   -0.5592   -0.9323 N   0  0  0  0  0  0  0  0  0  0  0  0
   -0.9543   -2.1316    0.9065 H   0  0  0  0  0  0  0  0  0  0  0  0
   -3.3843   -1.6667    0.7287 H   0  0  0  0  0  0  0  0  0  0  0  0
   -4.1177    0.5159   -0.1193 H   0  0  0  0  0  0  0  0  0  0  0  0
   -2.4863    2.2026   -0.7774 H   0  0  0  0  0  0  0  0  0  0  0  0
   -0.0502    1.7226   -0.5937 H   0  0  0  0  0  0  0  0  0  0  0  0
    1.9097    1.1953   -0.3911 H   0  0  0  0  0  0  0  0  0  0  0  0
    3.3433   -0.4596    1.4336 H   0  0  0  0  0  0  0  0  0  0  0  0
    3.7309   -1.0498   -0.4686 H   0  0  0  0  0  0  0  0  0  0  0  0
    3.2956    0.0972   -1.6507 H   0  0  0  0  0  0  0  0  0  0  0  0
  1  2  2  0
  2  3  1  0
  3  4  2  0
  4  5  1  0
  5  6  2  0
  6  7  1  0
  7  8  1  0
  8  9  1  0
  8 10  1  0
  6  1  1  0
  1 11  1  0
  2 12  1  0
  3 13  1  0
  4 14  1  0
  5 15  1  0
  8 16  1  0
  9 17  1  0
 10 18  1  0
 10 19  1  0
M  END
$$$$
